/*--------------------------------*- C++ -*----------------------------------*\
| =========                 |                                                 |
| \\      /  F ield         | OpenFOAM: The Open Source CFD Toolbox           |
|  \\    /   O peration     | Version:  2.2.1                                 |
|   \\  /    A nd           | Web:      www.OpenFOAM.org                      |
|    \\/     M anipulation  |                                                 |
\*---------------------------------------------------------------------------*/
FoamFile
{
    version     2.0;
    format      ascii;
    class       volScalarField;
    object      alpha;
}
// * * * * * * * * * * * * * * * * * * * * * * * * * * * * * * * * * * * * * //

dimensions      [0 0 0 0 0 0 0];

internalField   uniform 0;

boundaryField
{
    x1
    {
        type            zeroGradient;//BC is Neumann BC
    }
    walls
    {
        type            zeroGradient;
    }
    x2
    {
        type            zeroGradient;
    }
    z2
    {
        type            inletOutlet;
        inletValue      uniform 0;
        value           uniform 0;
    }
}

// ************************************************************************* //
