/*--------------------------------*- C++ -*----------------------------------*\
| =========                 |                                                 |
| \\      /  F ield         | OpenFOAM: The Open Source CFD Toolbox           |
|  \\    /   O peration     | Version:  1.6                                   |
|   \\  /    A nd           | Web:      www.OpenFOAM.org                      |
|    \\/     M anipulation  |                                                 |
\*---------------------------------------------------------------------------*/
FoamFile
{
    version     2.0;
    format      ascii;
    class       dictionary;
    location    "system";
    object      controlDict;
}
// * * * * * * * * * * * * * * * * * * * * * * * * * * * * * * * * * * * * * //

application     interDyMFoam;

startFrom       startTime;

startTime       0;

stopAt          endTime;

endTime         0.9;

deltaT          0.0002;

writeControl    adjustableRunTime;//timeStep;//

writeInterval   0.01;

purgeWrite      0;

writeFormat     ascii;

writePrecision  12;

writeCompression uncompressed;

timeFormat      general;

timePrecision   12;

runTimeModifiable off;//yes;

adjustTimeStep  no;

maxCo           0.5;
maxAlphaCo      0.5;
maxDeltaT       0.01;

// ************************************************************************* //
